# generated using pymatgen
data_Ca4P2O
_symmetry_space_group_name_H-M   'P 1'
_cell_length_a   4.51221942
_cell_length_b   4.51221942
_cell_length_c   8.19542474
_cell_angle_alpha   105.97923325
_cell_angle_beta   105.97923326
_cell_angle_gamma   89.99999994
_symmetry_Int_Tables_number   1
_chemical_formula_structural   Ca4P2O
_chemical_formula_sum   'Ca4 P2 O1'
_cell_volume   153.69523738
_cell_formula_units_Z   1
loop_
 _symmetry_equiv_pos_site_id
 _symmetry_equiv_pos_as_xyz
  1  'x, y, z'
loop_
 _atom_site_type_symbol
 _atom_site_label
 _atom_site_symmetry_multiplicity
 _atom_site_fract_x
 _atom_site_fract_y
 _atom_site_fract_z
 _atom_site_occupancy
  O  O1  1  0.000000  0.000000  0.000000  1
  P  P2  1  0.636177  0.636177  0.272355  1
  P  P3  1  0.363823  0.363823  0.727645  1
  Ca  Ca4  1  0.826018  0.826018  0.652036  1
  Ca  Ca5  1  0.173982  0.173982  0.347964  1
  Ca  Ca6  1  0.000000  0.500000  0.000000  1
  Ca  Ca7  1  0.500000  0.000000  0.000000  1
