# generated using pymatgen
data_UV2PbO9
_symmetry_space_group_name_H-M   'P 1'
_cell_length_a   7.02201025
_cell_length_b   9.90611944
_cell_length_c   12.04506860
_cell_angle_alpha   90.00000000
_cell_angle_beta   92.64269364
_cell_angle_gamma   90.00000000
_symmetry_Int_Tables_number   1
_chemical_formula_structural   UV2PbO9
_chemical_formula_sum   'U4 V8 Pb4 O36'
_cell_volume   836.97440054
_cell_formula_units_Z   4
loop_
 _symmetry_equiv_pos_site_id
 _symmetry_equiv_pos_as_xyz
  1  'x, y, z'
loop_
 _atom_site_type_symbol
 _atom_site_label
 _atom_site_symmetry_multiplicity
 _atom_site_fract_x
 _atom_site_fract_y
 _atom_site_fract_z
 _atom_site_occupancy
  U  U1  1  0.453773  0.000108  0.728979  1
  U  U2  1  0.546227  0.999892  0.271021  1
  U  U3  1  0.953773  0.499892  0.228979  1
  U  U4  1  0.046227  0.500108  0.771021  1
  V  V5  1  0.779114  0.727427  0.461836  1
  V  V6  1  0.279114  0.772573  0.961836  1
  V  V7  1  0.095402  0.041800  0.330070  1
  V  V8  1  0.404598  0.541800  0.169930  1
  V  V9  1  0.720886  0.227427  0.038164  1
  V  V10  1  0.595402  0.458200  0.830070  1
  V  V11  1  0.904598  0.958200  0.669930  1
  V  V12  1  0.220886  0.272573  0.538164  1
  Pb  Pb13  1  0.311559  0.692979  0.464118  1
  Pb  Pb14  1  0.811559  0.807021  0.964118  1
  Pb  Pb15  1  0.688441  0.307021  0.535882  1
  Pb  Pb16  1  0.188441  0.192979  0.035882  1
  O  O17  1  0.409310  0.649392  0.048946  1
  O  O18  1  0.909310  0.850608  0.548946  1
  O  O19  1  0.062801  0.343340  0.628756  1
  O  O20  1  0.062866  0.376658  0.884648  1
  O  O21  1  0.727469  0.387413  0.727842  1
  O  O22  1  0.272531  0.612587  0.272158  1
  O  O23  1  0.403094  0.188026  0.613388  1
  O  O24  1  0.042161  0.620400  0.656766  1
  O  O25  1  0.132350  0.002016  0.719188  1
  O  O26  1  0.090690  0.149392  0.451054  1
  O  O27  1  0.596906  0.811974  0.386612  1
  O  O28  1  0.756095  0.091375  0.638242  1
  O  O29  1  0.937199  0.656660  0.371244  1
  O  O30  1  0.957839  0.379600  0.343234  1
  O  O31  1  0.256095  0.408625  0.138242  1
  O  O32  1  0.227469  0.112587  0.227842  1
  O  O33  1  0.158931  0.894559  0.026434  1
  O  O34  1  0.096906  0.688026  0.886612  1
  O  O35  1  0.937134  0.623342  0.115352  1
  O  O36  1  0.542161  0.879600  0.156766  1
  O  O37  1  0.590690  0.350608  0.951054  1
  O  O38  1  0.562866  0.123342  0.384648  1
  O  O39  1  0.341069  0.394559  0.473566  1
  O  O40  1  0.437199  0.843340  0.871244  1
  O  O41  1  0.243905  0.908625  0.361758  1
  O  O42  1  0.743905  0.591375  0.861758  1
  O  O43  1  0.658931  0.605441  0.526434  1
  O  O44  1  0.772531  0.887413  0.772158  1
  O  O45  1  0.867650  0.997984  0.280812  1
  O  O46  1  0.903094  0.311974  0.113388  1
  O  O47  1  0.437134  0.876658  0.615352  1
  O  O48  1  0.457839  0.120400  0.843234  1
  O  O49  1  0.367650  0.502016  0.780812  1
  O  O50  1  0.562801  0.156660  0.128756  1
  O  O51  1  0.632350  0.497984  0.219188  1
  O  O52  1  0.841069  0.105441  0.973566  1
