# generated using pymatgen
data_Sm(SiAg)2
_symmetry_space_group_name_H-M   'P 1'
_cell_length_a   4.21780626
_cell_length_b   4.21780654
_cell_length_c   6.14934154
_cell_angle_alpha   110.05657223
_cell_angle_beta   110.05657364
_cell_angle_gamma   89.99999551
_symmetry_Int_Tables_number   1
_chemical_formula_structural   Sm(SiAg)2
_chemical_formula_sum   'Sm1 Si2 Ag2'
_cell_volume   95.66836335
_cell_formula_units_Z   1
loop_
 _symmetry_equiv_pos_site_id
 _symmetry_equiv_pos_as_xyz
  1  'x, y, z'
loop_
 _atom_site_type_symbol
 _atom_site_label
 _atom_site_symmetry_multiplicity
 _atom_site_fract_x
 _atom_site_fract_y
 _atom_site_fract_z
 _atom_site_occupancy
  Sm  Sm1  1  0.000000  0.000000  0.000000  1
  Si  Si2  1  0.607603  0.607603  0.215207  1
  Si  Si3  1  0.392397  0.392397  0.784793  1
  Ag  Ag4  1  0.250000  0.750000  0.500000  1
  Ag  Ag5  1  0.750000  0.250000  0.500000  1
